Version 4
SHEET 1 1524 820
WIRE 944 -48 880 -48
WIRE 1088 -48 1024 -48
WIRE -528 48 -560 48
WIRE -400 48 -448 48
WIRE -256 48 -320 48
WIRE -16 48 -176 48
WIRE 96 48 -16 48
WIRE 112 48 96 48
WIRE 176 48 112 48
WIRE 256 48 176 48
WIRE 464 48 256 48
WIRE 528 48 464 48
WIRE 688 48 624 48
WIRE 880 48 880 -48
WIRE 880 48 688 48
WIRE 944 48 880 48
WIRE 1088 48 1088 -48
WIRE 1088 48 1024 48
WIRE 1136 48 1088 48
WIRE 1200 48 1136 48
WIRE 256 64 256 48
WIRE 464 64 464 48
WIRE 176 80 176 48
WIRE 544 144 544 96
WIRE -560 160 -560 48
WIRE 176 160 176 144
WIRE 256 160 256 144
WIRE 256 160 176 160
WIRE 464 160 464 128
WIRE 464 160 256 160
WIRE 544 160 544 144
WIRE 544 160 464 160
WIRE 688 160 688 48
WIRE 112 176 112 48
WIRE 544 176 544 160
WIRE 1200 192 1200 48
WIRE 1424 256 1424 48
WIRE -16 272 -16 48
WIRE 544 272 544 256
WIRE 880 272 880 48
WIRE 1088 272 1088 48
WIRE 544 288 544 272
WIRE 1200 304 1200 272
WIRE 1264 304 1200 304
WIRE 112 336 112 256
WIRE 160 336 112 336
WIRE 304 336 240 336
WIRE 480 336 304 336
WIRE 1200 336 1200 304
WIRE 544 400 544 384
WIRE 688 400 688 224
WIRE 688 400 544 400
WIRE 112 432 112 336
WIRE 544 432 544 400
WIRE 304 448 304 336
WIRE -560 576 -560 240
WIRE -16 576 -16 336
WIRE -16 576 -560 576
WIRE 96 576 -16 576
WIRE 112 576 112 512
WIRE 112 576 96 576
WIRE 304 576 304 512
WIRE 304 576 112 576
WIRE 544 576 544 512
WIRE 544 576 304 576
WIRE 880 576 880 336
WIRE 880 576 544 576
WIRE 1088 576 1088 336
WIRE 1088 576 880 576
WIRE 1200 576 1200 416
WIRE 1200 576 1088 576
WIRE 1424 576 1424 336
WIRE 1424 576 1200 576
WIRE 96 592 96 576
FLAG 96 592 0
FLAG 1264 304 EN
FLAG 96 48 IN
FLAG 1136 48 OUT
FLAG 544 144 Vg
FLAG 544 272 Vc
FLAG 304 336 Vb
FLAG -192 0 0
FLAG -240 0 VCC
FLAG -144 800 0
FLAG -144 720 VCC
FLAG 544 400 Ve
SYMBOL res 1184 176 R0
SYMATTR InstName R1
SYMATTR Value 150k
SYMBOL res 1184 320 R0
SYMATTR InstName R2
SYMATTR Value 12k
SYMBOL voltage -560 144 R0
WINDOW 3 24 44 Invisible 2
WINDOW 123 0 0 Left 0
WINDOW 39 24 44 Left 2
SYMATTR Value 50
SYMATTR SpiceLine Rser=0
SYMATTR InstName V1
SYMBOL pmos 624 96 M270
SYMATTR InstName M1
SYMATTR Value Si7489DP
SYMBOL res 96 160 R0
SYMATTR InstName R3
SYMATTR Value 100k
SYMBOL res 96 416 R0
SYMATTR InstName R4
SYMATTR Value 10k
SYMBOL res 256 320 R90
WINDOW 0 0 56 VBottom 2
WINDOW 3 32 56 VTop 2
SYMATTR InstName R5
SYMATTR Value 100k
SYMBOL cap 320 512 R180
WINDOW 0 24 56 Left 2
WINDOW 3 24 8 Left 2
SYMATTR InstName C1
SYMATTR Value 220n
SYMBOL res 528 160 R0
SYMATTR InstName R6
SYMATTR Value 100k
SYMBOL res 240 48 R0
SYMATTR InstName R7
SYMATTR Value 100k
SYMBOL res 528 416 R0
SYMATTR InstName R8
SYMATTR Value 10k
SYMBOL cap 672 160 R0
SYMATTR InstName C3
SYMATTR Value 2.2µF
SYMATTR SpiceLine V=100 Irms=0 Rser=2m Lser=0
SYMBOL res -432 32 R90
WINDOW 0 0 56 VBottom 2
WINDOW 3 32 56 VTop 2
SYMATTR InstName R11
SYMATTR Value 200m
SYMBOL ind -416 64 R270
WINDOW 0 32 56 VTop 2
WINDOW 3 5 56 VBottom 2
SYMATTR InstName L1
SYMATTR Value 200n
SYMBOL cap 1072 272 R0
SYMATTR InstName C2
SYMATTR Value 10µF
SYMATTR SpiceLine Rser=.5m
SYMBOL cap 160 80 R0
SYMATTR InstName C4
SYMATTR Value 100n
SYMATTR SpiceLine Rser=5m
SYMBOL zener 0 336 R180
WINDOW 0 24 64 Left 2
WINDOW 3 24 0 Left 2
SYMATTR InstName D1
SYMATTR Value KDZLV75
SYMBOL zener 480 128 R180
WINDOW 0 24 64 Left 2
WINDOW 3 24 0 Left 2
SYMATTR InstName D2
SYMATTR Value TDZV12
SYMBOL cap 864 272 R0
SYMATTR InstName C5
SYMATTR Value 2.5µF
SYMATTR SpiceLine Rser=2m
SYMBOL ind 928 64 R270
WINDOW 0 32 56 VTop 2
WINDOW 3 5 56 VBottom 2
SYMATTR InstName L2
SYMATTR Value 8.2µH
SYMATTR SpiceLine Rser=60m
SYMBOL res 1040 -64 R90
WINDOW 0 0 56 VBottom 2
WINDOW 3 32 56 VTop 2
SYMATTR InstName R9
SYMATTR Value 10
SYMBOL sw -160 48 R90
SYMATTR InstName S1
SYMATTR Value CONN
SYMBOL voltage -144 704 R0
WINDOW 123 0 0 Left 0
WINDOW 39 0 0 Left 0
SYMATTR InstName V2
SYMATTR Value PULSE(0 4 0.1 .1n .1n 6 10)
SYMBOL voltage 1424 240 R0
WINDOW 123 24 124 Left 2
WINDOW 39 0 0 Left 0
SYMATTR Value2 AC 1 0
SYMATTR InstName V3
SYMATTR Value 0
SYMBOL npn 480 288 R0
SYMATTR InstName Q1
SYMATTR Value 2N5550
TEXT 264 664 Left 2 ;.tran 0 100.1m 99.9m startup
TEXT 264 776 Left 2 ;Originally from:\nhttps://electronics.stackexchange.com/a/80428
TEXT 264 632 Left 2 !.tran 0 1 0 startup
TEXT 264 728 Left 2 !.model CONN SW(Ron=10m Roff=99Meg Vt=.5 Vh=-.4)
TEXT 264 696 Left 2 ;.ac dec 10 100 100Meg
TEXT 272 -144 Left 2 ;Transistor Q1 must be rated\nfor max input voltage!
