Version 4
SHEET 1 1592 680
WIRE 784 64 768 64
WIRE 960 64 944 64
WIRE 768 176 768 64
WIRE 768 176 624 176
WIRE 832 176 768 176
WIRE 960 176 960 64
WIRE 960 176 912 176
WIRE 1104 176 960 176
WIRE 768 208 768 176
WIRE 960 208 960 176
WIRE 1104 256 1104 176
WIRE 768 304 768 272
WIRE 960 304 960 272
WIRE 768 416 768 384
WIRE 864 416 768 416
WIRE 960 416 960 384
WIRE 960 416 864 416
WIRE 1104 416 1104 336
WIRE 1104 416 960 416
WIRE 864 432 864 416
FLAG 864 432 0
FLAG 624 176 OUT
SYMBOL ind 816 192 R270
WINDOW 0 32 56 VTop 2
WINDOW 3 5 56 VBottom 2
SYMATTR InstName L1
SYMATTR Value 8.2µH
SYMBOL cap 944 208 R0
SYMATTR InstName C1
SYMATTR Value 10µF
SYMBOL cap 752 208 R0
SYMATTR InstName C2
SYMATTR Value 2.5µF
SYMBOL res 944 288 R0
SYMATTR InstName R1
SYMATTR Value .5m
SYMBOL res 752 288 R0
SYMATTR InstName R2
SYMATTR Value 2m
SYMBOL res 880 48 R90
WINDOW 0 0 56 VBottom 2
WINDOW 3 32 56 VTop 2
SYMATTR InstName R3
SYMATTR Value 10
SYMBOL ind 848 80 R270
WINDOW 0 32 56 VTop 2
WINDOW 3 5 56 VBottom 2
SYMATTR InstName L2
SYMATTR Value 3nH
SYMBOL voltage 1104 240 R0
WINDOW 3 24 96 Invisible 2
WINDOW 123 24 124 Left 2
WINDOW 39 0 0 Left 0
SYMATTR InstName V1
SYMATTR Value 0
SYMATTR Value2 AC 1 0
TEXT 976 456 Left 2 !.ac dec 20 100 100Meg
