Version 4
SHEET 1 1064 680
WIRE 64 128 16 128
WIRE 176 128 144 128
WIRE 304 128 256 128
WIRE 416 128 304 128
WIRE 528 128 416 128
WIRE 640 128 528 128
WIRE 752 128 640 128
WIRE 864 128 752 128
WIRE 976 128 864 128
WIRE 304 176 304 128
WIRE 416 176 416 128
WIRE 528 176 528 128
WIRE 640 176 640 128
WIRE 752 176 752 128
WIRE 864 176 864 128
WIRE 976 176 976 128
WIRE 16 272 16 128
WIRE 304 272 304 240
WIRE 416 272 416 240
WIRE 528 272 528 240
WIRE 640 272 640 240
WIRE 752 272 752 240
WIRE 864 272 864 240
WIRE 976 272 976 240
WIRE 304 384 304 352
WIRE 416 384 416 352
WIRE 528 384 528 352
WIRE 640 384 640 352
WIRE 752 384 752 352
WIRE 864 384 864 352
WIRE 976 384 976 352
WIRE 304 496 304 464
WIRE 416 496 416 464
WIRE 416 496 304 496
WIRE 528 496 528 464
WIRE 528 496 416 496
WIRE 640 496 640 464
WIRE 640 496 528 496
WIRE 752 496 752 464
WIRE 752 496 640 496
WIRE 864 496 864 464
WIRE 864 496 752 496
WIRE 976 496 976 464
WIRE 976 496 864 496
WIRE 16 528 16 352
WIRE 416 528 416 496
FLAG 416 528 0
FLAG 16 128 IN
FLAG 16 528 0
SYMBOL res 272 112 R90
WINDOW 0 0 56 VBottom 2
WINDOW 3 32 56 VTop 2
SYMATTR InstName R1
SYMATTR Value 15m
SYMBOL cap 288 176 R0
SYMATTR InstName C1
SYMATTR Value 18µF
SYMBOL res 288 256 R0
SYMATTR InstName R2
SYMATTR Value 3m47
SYMBOL ind 288 368 R0
SYMATTR InstName L2
SYMATTR Value 1n06
SYMBOL voltage 16 256 R0
WINDOW 123 24 124 Left 2
WINDOW 39 0 0 Left 0
SYMATTR Value2 AC 1 0
SYMATTR InstName V1
SYMATTR Value ""
SYMBOL ind 48 144 R270
WINDOW 0 32 56 VTop 2
WINDOW 3 5 56 VBottom 2
SYMATTR InstName L1
SYMATTR Value 0
SYMBOL cap 400 176 R0
SYMATTR InstName C2
SYMATTR Value 18µF
SYMBOL res 400 256 R0
SYMATTR InstName R3
SYMATTR Value 3m47
SYMBOL ind 400 368 R0
SYMATTR InstName L3
SYMATTR Value 1n06
SYMBOL cap 512 176 R0
SYMATTR InstName C3
SYMATTR Value 18µF
SYMBOL res 512 256 R0
SYMATTR InstName R4
SYMATTR Value 3m47
SYMBOL ind 512 368 R0
SYMATTR InstName L4
SYMATTR Value 1n06
SYMBOL cap 624 176 R0
SYMATTR InstName C4
SYMATTR Value 18µF
SYMBOL res 624 256 R0
SYMATTR InstName R5
SYMATTR Value 3m47
SYMBOL ind 624 368 R0
SYMATTR InstName L5
SYMATTR Value 1n06
SYMBOL cap 736 176 R0
SYMATTR InstName C5
SYMATTR Value 18µF
SYMBOL res 736 256 R0
SYMATTR InstName R6
SYMATTR Value 3m47
SYMBOL ind 736 368 R0
SYMATTR InstName L6
SYMATTR Value 1n06
SYMBOL cap 848 176 R0
SYMATTR InstName C6
SYMATTR Value 18µF
SYMBOL res 848 256 R0
SYMATTR InstName R7
SYMATTR Value 3m47
SYMBOL ind 848 368 R0
SYMATTR InstName L7
SYMATTR Value 1n06
SYMBOL cap 960 176 R0
SYMATTR InstName C7
SYMATTR Value 100µF
SYMBOL res 960 256 R0
SYMATTR InstName R8
SYMATTR Value 25m
SYMBOL ind 960 368 R0
SYMATTR InstName L8
SYMATTR Value 2n3
TEXT 344 600 Left 2 !.ac dec 40 1k 100Meg
