Version 4
SHEET 1 880 680
WIRE 64 128 16 128
WIRE 176 128 144 128
WIRE 304 128 256 128
WIRE 416 128 304 128
WIRE 560 128 416 128
WIRE 304 176 304 128
WIRE 416 176 416 128
WIRE 16 272 16 128
WIRE 304 272 304 240
WIRE 416 272 416 240
WIRE 528 272 528 240
WIRE 304 384 304 352
WIRE 416 384 416 352
WIRE 528 384 528 352
WIRE 304 496 304 464
WIRE 416 496 416 464
WIRE 416 496 304 496
WIRE 528 496 528 464
WIRE 528 496 416 496
WIRE 16 528 16 352
WIRE 416 528 416 496
FLAG 416 528 0
FLAG 16 128 IN
FLAG 560 128 OUT
FLAG 16 528 0
SYMBOL ind 48 144 R270
WINDOW 0 32 56 VTop 2
WINDOW 3 5 56 VBottom 2
SYMATTR InstName L1
SYMATTR Value 4µ7
SYMBOL res 272 112 R90
WINDOW 0 0 56 VBottom 2
WINDOW 3 32 56 VTop 2
SYMATTR InstName R1
SYMATTR Value 15m
SYMBOL cap 288 176 R0
SYMATTR InstName C1
SYMATTR Value 88µ
SYMBOL cap 400 176 R0
SYMATTR InstName C2
SYMATTR Value 100µ
SYMBOL cap 512 176 R0
SYMATTR InstName C3
SYMATTR Value 400n
SYMBOL res 288 256 R0
SYMATTR InstName R2
SYMATTR Value 0m3
SYMBOL res 400 256 R0
SYMATTR InstName R3
SYMATTR Value 55m
SYMBOL res 512 256 R0
SYMATTR InstName R4
SYMATTR Value 4m
SYMBOL ind 288 368 R0
SYMATTR InstName L2
SYMATTR Value 135p
SYMBOL ind 400 368 R0
SYMATTR InstName L3
SYMATTR Value 900p
SYMBOL ind 512 368 R0
SYMATTR InstName L4
SYMATTR Value 439p
SYMBOL voltage 16 256 R0
WINDOW 123 24 124 Left 2
WINDOW 39 0 0 Left 0
SYMATTR Value2 AC 1 0
SYMATTR InstName V1
SYMATTR Value ""
TEXT 344 600 Left 2 !.ac dec 20 1k 100Meg
